RADICS-Ex2 Yes Even More GLD Models/RADICS_Sub7.glm
//Input feeder information for Taxonomy Feeders with different cases.
//Started on 10/21/09. This version created 29-Sep-2017 11:16:05.
// This version was created to perform FY11 Department of Energy
// analysis on the benefits of the SGIG grant projects.

clock {
	timezone CST+6CDT;
	starttime '2009-01-01 00:00:00';
	stoptime '2010-01-02 00:00:00';
}

#include "appliance_schedules.glm";
#include "water_and_setpoint_schedule_v5.glm";
#include "commercial_schedules.glm";
#set minimum_timestep=4;
#set profiler=1;
#set relax_naming_rules=1;

module tape;

module climate;

module residential {
	implicit_enduses NONE;
};

module powerflow {
	solver_method NR;
	NR_iteration_limit 50;
	lu_solver "KLU_x64";
};

class player {
	double value;
};

object climate {
	name "IL-Chicago";
	tmyfile "IL-Chicago.tmy2";
	interpolate QUADRATIC;
}

object regulator_configuration {
	name feeder_reg_cfg;
	Control OUTPUT_VOLTAGE;
	band_center 14975.0;
	band_width 240;
	connect_type WYE_WYE;
	time_delay 30;
	raise_taps 16;
	lower_taps 16;
	regulation 0.10;
	tap_pos_A 0;
	tap_pos_B 0;
	tap_pos_C 0;
}

object line_configuration {
	name line_configuration_21;
	conductor_A underground_line_conductor_2;
	conductor_N underground_line_conductor_2;
	spacing line_spacing_14;
}

object line_configuration {
	name line_configuration_22;
	conductor_A overhead_line_conductor_3;
	conductor_B overhead_line_conductor_3;
	conductor_C overhead_line_conductor_3;
	conductor_N overhead_line_conductor_3;
	spacing line_spacing_15;
}

object line_configuration {
	name line_configuration_23;
	conductor_A underground_line_conductor_4;
	conductor_N underground_line_conductor_4;
	spacing line_spacing_14;
}

object line_configuration {
	name line_configuration_24;
	conductor_A overhead_line_conductor_3;
	conductor_B overhead_line_conductor_3;
	conductor_C overhead_line_conductor_3;
	conductor_N overhead_line_conductor_3;
	spacing line_spacing_15;
}

object line_configuration {
	name line_configuration_25;
	conductor_A underground_line_conductor_5;
	conductor_B underground_line_conductor_5;
	conductor_C underground_line_conductor_5;
	conductor_N underground_line_conductor_5;
	spacing line_spacing_16;
}

object line_configuration {
	name line_configuration_26;
	conductor_A overhead_line_conductor_6;
	conductor_B overhead_line_conductor_6;
	conductor_C overhead_line_conductor_6;
	conductor_N overhead_line_conductor_6;
	spacing line_spacing_16;
}

object line_configuration {
	name line_configuration_27;
	conductor_B overhead_line_conductor_7;
	conductor_N overhead_line_conductor_7;
	spacing line_spacing_17;
}

object line_configuration {
	name line_configuration_28;
	conductor_C underground_line_conductor_2;
	conductor_N underground_line_conductor_2;
	spacing line_spacing_18;
}

object line_configuration {
	name line_configuration_29;
	conductor_A overhead_line_conductor_7;
	conductor_B overhead_line_conductor_7;
	conductor_C overhead_line_conductor_7;
	conductor_N overhead_line_conductor_7;
	spacing line_spacing_15;
}

object line_configuration {
	name line_configuration_30;
	conductor_B underground_line_conductor_4;
	conductor_N underground_line_conductor_4;
	spacing line_spacing_19;
}

object line_configuration {
	name line_configuration_31;
	conductor_C overhead_line_conductor_7;
	conductor_N overhead_line_conductor_7;
	spacing line_spacing_20;
}

object line_configuration {
	name line_configuration_32;
	conductor_B underground_line_conductor_2;
	conductor_N underground_line_conductor_2;
	spacing line_spacing_19;
}

object line_configuration {
	name line_configuration_33;
	conductor_A underground_line_conductor_2;
	conductor_N underground_line_conductor_2;
	spacing line_spacing_14;
}

object line_configuration {
	name line_configuration_34;
	conductor_A overhead_line_conductor_8;
	conductor_B overhead_line_conductor_8;
	conductor_C overhead_line_conductor_8;
	conductor_N overhead_line_conductor_8;
	spacing line_spacing_15;
}

object line_configuration {
	name line_configuration_35;
	conductor_A overhead_line_conductor_8;
	conductor_B overhead_line_conductor_8;
	conductor_C overhead_line_conductor_8;
	conductor_N overhead_line_conductor_8;
	spacing line_spacing_15;
}

object line_configuration {
	name line_configuration_36;
	conductor_A underground_line_conductor_4;
	conductor_B underground_line_conductor_4;
	conductor_C underground_line_conductor_4;
	conductor_N underground_line_conductor_4;
	spacing line_spacing_16;
}

object line_configuration {
	name line_configuration_37;
	conductor_C underground_line_conductor_4;
	conductor_N underground_line_conductor_4;
	spacing line_spacing_18;
}

object line_configuration {
	name line_configuration_38;
	conductor_C overhead_line_conductor_9;
	conductor_N overhead_line_conductor_9;
	spacing line_spacing_20;
}

object line_configuration {
	name line_configuration_39;
	conductor_C underground_line_conductor_2;
	conductor_N underground_line_conductor_2;
	spacing line_spacing_18;
}

object line_configuration {
	name line_configuration_40;
	conductor_A overhead_line_conductor_10;
	conductor_B overhead_line_conductor_10;
	conductor_C overhead_line_conductor_10;
	conductor_N overhead_line_conductor_10;
	spacing line_spacing_15;
}

object line_configuration {
	name line_configuration_41;
	conductor_A overhead_line_conductor_7;
	conductor_B overhead_line_conductor_7;
	conductor_C overhead_line_conductor_7;
	conductor_N overhead_line_conductor_7;
	spacing line_spacing_15;
}

object line_configuration {
	name line_configuration_42;
	conductor_C overhead_line_conductor_11;
	conductor_N overhead_line_conductor_11;
	spacing line_spacing_20;
}

object line_configuration {
	name line_configuration_43;
	conductor_C overhead_line_conductor_10;
	conductor_N overhead_line_conductor_10;
	spacing line_spacing_20;
}

object line_configuration {
	name line_configuration_44;
	conductor_C overhead_line_conductor_11;
	conductor_N overhead_line_conductor_11;
	spacing line_spacing_20;
}

object line_configuration {
	name line_configuration_45;
	conductor_B overhead_line_conductor_8;
	conductor_N overhead_line_conductor_8;
	spacing line_spacing_17;
}

object line_configuration {
	name line_configuration_46;
	conductor_A overhead_line_conductor_8;
	conductor_B overhead_line_conductor_8;
	conductor_C overhead_line_conductor_8;
	conductor_N overhead_line_conductor_8;
	spacing line_spacing_15;
}

object line_configuration {
	name line_configuration_47;
	conductor_A overhead_line_conductor_6;
	conductor_B overhead_line_conductor_6;
	conductor_C overhead_line_conductor_6;
	conductor_N overhead_line_conductor_6;
	spacing line_spacing_15;
}

object line_configuration {
	name line_configuration_48;
	conductor_B overhead_line_conductor_6;
	conductor_N overhead_line_conductor_6;
	spacing line_spacing_17;
}

object line_configuration {
	name line_configuration_49;
	conductor_B overhead_line_conductor_10;
	conductor_N overhead_line_conductor_10;
	spacing line_spacing_17;
}

object line_configuration {
	name line_configuration_50;
	conductor_C overhead_line_conductor_12;
	conductor_N overhead_line_conductor_12;
	spacing line_spacing_20;
}

object line_configuration {
	name line_configuration_51;
	conductor_A overhead_line_conductor_3;
	conductor_B overhead_line_conductor_3;
	conductor_C overhead_line_conductor_3;
	conductor_N overhead_line_conductor_3;
	spacing line_spacing_15;
}

object line_configuration {
	name line_configuration_52;
	conductor_A overhead_line_conductor_6;
	conductor_B overhead_line_conductor_6;
	conductor_C overhead_line_conductor_6;
	conductor_N overhead_line_conductor_6;
	spacing line_spacing_15;
}

object line_configuration {
	name line_configuration_53;
	conductor_A overhead_line_conductor_13;
	conductor_B overhead_line_conductor_13;
	conductor_C overhead_line_conductor_13;
	conductor_N overhead_line_conductor_13;
	spacing line_spacing_15;
}

object line_spacing {
	name line_spacing_14;
	distance_AN 6.0 in;
}

object line_spacing {
	name line_spacing_15;
	distance_AB 59.0 in;
	distance_BC 59.0 in;
	distance_AC 59.0 in;
	distance_AN 59.0 in;
	distance_BN 59.0 in;
	distance_CN 59.0 in;
}

object line_spacing {
	name line_spacing_16;
	distance_AB 6.0 in;
	distance_BC 6.0 in;
	distance_AC 6.0 in;
	distance_AN 6.0 in;
	distance_BN 6.0 in;
	distance_CN 6.0 in;
}

object line_spacing {
	name line_spacing_17;
	distance_BN 53.0 in;
}

object line_spacing {
	name line_spacing_18;
	distance_CN 6.0 in;
}

object line_spacing {
	name line_spacing_19;
	distance_BN 6.0 in;
}

object line_spacing {
	name line_spacing_20;
	distance_CN 53.0 in;
}

object overhead_line_conductor {
	name overhead_line_conductor_3;
	rating.summer.continuous 530.0;
	geometric_mean_radius 0.02300 ft;
	resistance 0.30300;
}

object overhead_line_conductor {
	name overhead_line_conductor_6;
	rating.summer.continuous 149.0;
	geometric_mean_radius 0.00663 ft;
	resistance 1.50000;
}

object overhead_line_conductor {
	name overhead_line_conductor_7;
	rating.summer.continuous 180.0;
	geometric_mean_radius 0.00418 ft;
	resistance 1.62570;
}

object overhead_line_conductor {
	name overhead_line_conductor_8;
	rating.summer.continuous 360.0;
	geometric_mean_radius 0.01033 ft;
	resistance 0.47600;
}

object overhead_line_conductor {
	name overhead_line_conductor_9;
	rating.summer.continuous 84.0;
	geometric_mean_radius 0.00417 ft;
	resistance 3.84030;
}

object overhead_line_conductor {
	name overhead_line_conductor_10;
	rating.summer.continuous 256.0;
	geometric_mean_radius 0.01200 ft;
	resistance 0.16600;
}

object overhead_line_conductor {
	name overhead_line_conductor_11;
	rating.summer.continuous 105.0;
	geometric_mean_radius 0.00394 ft;
	resistance 3.95941;
}

object overhead_line_conductor {
	name overhead_line_conductor_12;
	rating.summer.continuous 230.0;
	geometric_mean_radius 0.00446 ft;
	resistance 1.04100;
}

object overhead_line_conductor {
	name overhead_line_conductor_13;
	rating.summer.continuous 878.0;
	geometric_mean_radius 0.03280 ft;
	resistance 0.13100;
}

object transformer_configuration {
	name transformer_configuration_1329;
	connect_type SINGLE_PHASE_CENTER_TAPPED;
	install_type PADMOUNT;
	primary_voltage 14376.02 V;
	secondary_voltage 120 V;
	power_rating 125.0;
	powerA_rating 125.0;
	resistance 0.00120;
	reactance 0.00080;
	shunt_impedance 548.210+519.652j;
}

object transformer_configuration {
	name transformer_configuration_1330;
	connect_type SINGLE_PHASE_CENTER_TAPPED;
	install_type POLETOP;
	primary_voltage 14376.02 V;
	secondary_voltage 120 V;
	power_rating 15.0;
	powerA_rating 15.0;
	resistance 0.01000;
	reactance 0.00667;
	shunt_impedance 318.750+277.981j;
}

object transformer_configuration {
	name transformer_configuration_1331;
	connect_type SINGLE_PHASE_CENTER_TAPPED;
	install_type POLETOP;
	primary_voltage 14376.02 V;
	secondary_voltage 120 V;
	power_rating 200.0;
	powerA_rating 200.0;
	resistance 0.00075;
	reactance 0.00050;
	shunt_impedance 704.660+700.698j;
}

object transformer_configuration {
	name transformer_configuration_1332;
	connect_type SINGLE_PHASE_CENTER_TAPPED;
	install_type POLETOP;
	primary_voltage 14376.02 V;
	secondary_voltage 120 V;
	power_rating 10.0;
	powerA_rating 10.0;
	resistance 0.015;
	reactance 0.01;
	shunt_impedance 308.320+301.855j;
}

object transformer_configuration {
	name transformer_configuration_1333;
	connect_type SINGLE_PHASE_CENTER_TAPPED;
	install_type PADMOUNT;
	primary_voltage 14376.02 V;
	secondary_voltage 120 V;
	power_rating 25.0;
	powerA_rating 25.0;
	resistance 0.00600;
	reactance 0.00400;
	shunt_impedance 339.610+346.134j;
}

object transformer_configuration {
	name transformer_configuration_1334;
	connect_type SINGLE_PHASE_CENTER_TAPPED;
	install_type PADMOUNT;
	primary_voltage 14376.02 V;
	secondary_voltage 120 V;
	power_rating 10.0;
	powerA_rating 10.0;
	resistance 0.015;
	reactance 0.01;
	shunt_impedance 308.320+338.916j;
}

object transformer_configuration {
	name transformer_configuration_1335;
	connect_type SINGLE_PHASE_CENTER_TAPPED;
	install_type PADMOUNT;
	primary_voltage 14376.02 V;
	secondary_voltage 120 V;
	power_rating 50.0;
	powerA_rating 50.0;
	resistance 0.00300;
	reactance 0.00200;
	shunt_impedance 391.760+414.335j;
}

object transformer_configuration {
	name transformer_configuration_1336;
	connect_type SINGLE_PHASE_CENTER_TAPPED;
	install_type POLETOP;
	primary_voltage 14376.02 V;
	secondary_voltage 120 V;
	power_rating 50.0;
	powerA_rating 50.0;
	resistance 0.00300;
	reactance 0.00200;
	shunt_impedance 391.760+442.915j;
}

object transformer_configuration {
	name transformer_configuration_1337;
	connect_type SINGLE_PHASE_CENTER_TAPPED;
	install_type PADMOUNT;
	primary_voltage 14376.02 V;
	secondary_voltage 120 V;
	power_rating 175.0;
	powerA_rating 175.0;
	resistance 0.00086;
	reactance 0.00057;
	shunt_impedance 652.510+604.922j;
}

object transformer_configuration {
	name transformer_configuration_1338;
	connect_type SINGLE_PHASE_CENTER_TAPPED;
	install_type PADMOUNT;
	primary_voltage 14376.02 V;
	secondary_voltage 120 V;
	power_rating 500.0;
	powerA_rating 500.0;
	resistance 0.00030;
	reactance 0.00020;
	shunt_impedance 1330.460+1215.432j;
}

object transformer_configuration {
	name transformer_configuration_1339;
	connect_type SINGLE_PHASE_CENTER_TAPPED;
	install_type POLETOP;
	primary_voltage 14376.02 V;
	secondary_voltage 120 V;
	power_rating 25.0;
	powerA_rating 25.0;
	resistance 0.00600;
	reactance 0.00400;
	shunt_impedance 339.610+336.386j;
}

object transformer_configuration {
	name transformer_configuration_1340;
	connect_type SINGLE_PHASE_CENTER_TAPPED;
	install_type POLETOP;
	primary_voltage 14376.02 V;
	secondary_voltage 120 V;
	power_rating 100.0;
	powerA_rating 100.0;
	resistance 0.00150;
	reactance 0.00100;
	shunt_impedance 496.060+564.676j;
}

object transformer_configuration {
	name transformer_configuration_1341;
	connect_type SINGLE_PHASE_CENTER_TAPPED;
	install_type POLETOP;
	primary_voltage 14376.02 V;
	secondary_voltage 120 V;
	power_rating 5.0;
	powerA_rating 5.0;
	resistance 0.015;
	reactance 0.01;
	shunt_impedance 297.890+336.725j;
}

object transformer_configuration {
	name transformer_configuration_1342;
	connect_type SINGLE_PHASE_CENTER_TAPPED;
	install_type POLETOP;
	primary_voltage 14376.02 V;
	secondary_voltage 120 V;
	power_rating 150.0;
	powerA_rating 150.0;
	resistance 0.00100;
	reactance 0.00067;
	shunt_impedance 600.360+592.807j;
}

object transformer_configuration {
	name transformer_configuration_1343;
	connect_type SINGLE_PHASE_CENTER_TAPPED;
	install_type PADMOUNT;
	primary_voltage 14376.02 V;
	secondary_voltage 120 V;
	power_rating 100.0;
	powerA_rating 100.0;
	resistance 0.00150;
	reactance 0.00100;
	shunt_impedance 496.060+466.451j;
}

object transformer_configuration {
	name transformer_configuration_1344;
	connect_type SINGLE_PHASE_CENTER_TAPPED;
	install_type POLETOP;
	primary_voltage 14376.02 V;
	secondary_voltage 120 V;
	power_rating 225.0;
	powerA_rating 225.0;
	resistance 0.00067;
	reactance 0.00044;
	shunt_impedance 756.810+641.726j;
}

object transformer_configuration {
	name transformer_configuration_1345;
	connect_type SINGLE_PHASE_CENTER_TAPPED;
	install_type PADMOUNT;
	primary_voltage 14376.02 V;
	secondary_voltage 120 V;
	power_rating 337.5;
	powerA_rating 337.5;
	resistance 0.00044;
	reactance 0.00030;
	shunt_impedance 991.485+1058.097j;
}

object transformer_configuration {
	name transformer_configuration_1346;
	connect_type SINGLE_PHASE_CENTER_TAPPED;
	install_type PADMOUNT;
	primary_voltage 14376.02 V;
	secondary_voltage 120 V;
	power_rating 75.0;
	powerA_rating 75.0;
	resistance 0.00200;
	reactance 0.00133;
	shunt_impedance 443.910+444.924j;
}

object transformer_configuration {
	name transformer_configuration_1347;
	connect_type SINGLE_PHASE_CENTER_TAPPED;
	install_type PADMOUNT;
	primary_voltage 14376.02 V;
	secondary_voltage 120 V;
	power_rating 15.0;
	powerA_rating 15.0;
	resistance 0.01000;
	reactance 0.00667;
	shunt_impedance 318.750+281.208j;
}

object transformer_configuration {
	name transformer_configuration_1348;
	connect_type SINGLE_PHASE_CENTER_TAPPED;
	install_type PADMOUNT;
	primary_voltage 14376.02 V;
	secondary_voltage 120 V;
	power_rating 5.0;
	powerA_rating 5.0;
	resistance 0.015;
	reactance 0.01;
	shunt_impedance 297.890+287.923j;
}

object transformer_configuration {
	name transformer_configuration_1349;
	connect_type SINGLE_PHASE_CENTER_TAPPED;
	install_type POLETOP;
	primary_voltage 14376.02 V;
	secondary_voltage 120 V;
	power_rating 37.5;
	powerA_rating 37.5;
	resistance 0.00400;
	reactance 0.00267;
	shunt_impedance 365.685+298.785j;
}

object transformer_configuration {
	name transformer_configuration_1350;
	connect_type SINGLE_PHASE_CENTER_TAPPED;
	install_type POLETOP;
	primary_voltage 14376.02 V;
	secondary_voltage 120 V;
	power_rating 125.0;
	powerA_rating 125.0;
	resistance 0.00120;
	reactance 0.00080;
	shunt_impedance 548.210+571.782j;
}

object transformer_configuration {
	name transformer_configuration_1351;
	connect_type SINGLE_PHASE_CENTER_TAPPED;
	install_type PADMOUNT;
	primary_voltage 14376.02 V;
	secondary_voltage 120 V;
	power_rating 225.0;
	powerA_rating 225.0;
	resistance 0.00067;
	reactance 0.00044;
	shunt_impedance 756.810+743.642j;
}

object transformer_configuration {
	name transformer_configuration_1352;
	connect_type SINGLE_PHASE_CENTER_TAPPED;
	install_type POLETOP;
	primary_voltage 14376.02 V;
	secondary_voltage 120 V;
	power_rating 175.0;
	powerA_rating 175.0;
	resistance 0.00086;
	reactance 0.00057;
	shunt_impedance 652.510+758.950j;
}

object transformer_configuration {
	name transformer_configuration_1353;
	connect_type SINGLE_PHASE_CENTER_TAPPED;
	install_type POLETOP;
	primary_voltage 14376.02 V;
	secondary_voltage 120 V;
	power_rating 75.0;
	powerA_rating 75.0;
	resistance 0.00200;
	reactance 0.00133;
	shunt_impedance 443.910+383.564j;
}

object transformer_configuration {
	name transformer_configuration_1354;
	connect_type SINGLE_PHASE_CENTER_TAPPED;
	install_type POLETOP;
	primary_voltage 14376.02 V;
	secondary_voltage 120 V;
	power_rating 250.0;
	powerA_rating 250.0;
	resistance 0.00060;
	reactance 0.00040;
	shunt_impedance 808.960+887.470j;
}

object transformer_configuration {
	name transformer_configuration_1355;
	connect_type SINGLE_PHASE_CENTER_TAPPED;
	install_type POLETOP;
	primary_voltage 14376.02 V;
	secondary_voltage 120 V;
	power_rating 62.5;
	powerA_rating 62.5;
	resistance 0.00240;
	reactance 0.00160;
	shunt_impedance 417.835+423.837j;
}

object transformer_configuration {
	name transformer_configuration_1356;
	connect_type SINGLE_PHASE_CENTER_TAPPED;
	install_type POLETOP;
	primary_voltage 14376.02 V;
	secondary_voltage 120 V;
	power_rating 15.0;
	powerB_rating 15.0;
	resistance 0.01000;
	reactance 0.00667;
	shunt_impedance 318.750+321.383j;
}

object transformer_configuration {
	name transformer_configuration_1357;
	connect_type SINGLE_PHASE_CENTER_TAPPED;
	install_type POLETOP;
	primary_voltage 14376.02 V;
	secondary_voltage 120 V;
	power_rating 10.0;
	powerB_rating 10.0;
	resistance 0.015;
	reactance 0.01;
	shunt_impedance 308.320+330.416j;
}

object transformer_configuration {
	name transformer_configuration_1358;
	connect_type SINGLE_PHASE_CENTER_TAPPED;
	install_type POLETOP;
	primary_voltage 14376.02 V;
	secondary_voltage 120 V;
	power_rating 175.0;
	powerB_rating 175.0;
	resistance 0.00086;
	reactance 0.00057;
	shunt_impedance 652.510+730.386j;
}

object transformer_configuration {
	name transformer_configuration_1359;
	connect_type SINGLE_PHASE_CENTER_TAPPED;
	install_type PADMOUNT;
	primary_voltage 14376.02 V;
	secondary_voltage 120 V;
	power_rating 10.0;
	powerB_rating 10.0;
	resistance 0.015;
	reactance 0.01;
	shunt_impedance 308.320+275.297j;
}

object transformer_configuration {
	name transformer_configuration_1360;
	connect_type SINGLE_PHASE_CENTER_TAPPED;
	install_type PADMOUNT;
	primary_voltage 14376.02 V;
	secondary_voltage 120 V;
	power_rating 500.0;
	powerB_rating 500.0;
	resistance 0.00030;
	reactance 0.00020;
	shunt_impedance 1330.460+1505.935j;
}

object transformer_configuration {
	name transformer_configuration_1361;
	connect_type SINGLE_PHASE_CENTER_TAPPED;
	install_type POLETOP;
	primary_voltage 14376.02 V;
	secondary_voltage 120 V;
	power_rating 25.0;
	powerB_rating 25.0;
	resistance 0.00600;
	reactance 0.00400;
	shunt_impedance 339.610+298.517j;
}

object transformer_configuration {
	name transformer_configuration_1362;
	connect_type SINGLE_PHASE_CENTER_TAPPED;
	install_type POLETOP;
	primary_voltage 14376.02 V;
	secondary_voltage 120 V;
	power_rating 50.0;
	powerB_rating 50.0;
	resistance 0.00300;
	reactance 0.00200;
	shunt_impedance 391.760+349.680j;
}

object transformer_configuration {
	name transformer_configuration_1363;
	connect_type SINGLE_PHASE_CENTER_TAPPED;
	install_type POLETOP;
	primary_voltage 14376.02 V;
	secondary_voltage 120 V;
	power_rating 5.0;
	powerB_rating 5.0;
	resistance 0.015;
	reactance 0.01;
	shunt_impedance 297.890+277.855j;
}

object transformer_configuration {
	name transformer_configuration_1364;
	connect_type SINGLE_PHASE_CENTER_TAPPED;
	install_type POLETOP;
	primary_voltage 14376.02 V;
	secondary_voltage 120 V;
	power_rating 125.0;
	powerB_rating 125.0;
	resistance 0.00120;
	reactance 0.00080;
	shunt_impedance 548.210+588.584j;
}

object transformer_configuration {
	name transformer_configuration_1365;
	connect_type SINGLE_PHASE_CENTER_TAPPED;
	install_type PADMOUNT;
	primary_voltage 14376.02 V;
	secondary_voltage 120 V;
	power_rating 100.0;
	powerB_rating 100.0;
	resistance 0.00150;
	reactance 0.00100;
	shunt_impedance 496.060+442.984j;
}

object transformer_configuration {
	name transformer_configuration_1366;
	connect_type SINGLE_PHASE_CENTER_TAPPED;
	install_type PADMOUNT;
	primary_voltage 14376.02 V;
	secondary_voltage 120 V;
	power_rating 125.0;
	powerB_rating 125.0;
	resistance 0.00120;
	reactance 0.00080;
	shunt_impedance 548.210+566.559j;
}

object transformer_configuration {
	name transformer_configuration_1367;
	connect_type SINGLE_PHASE_CENTER_TAPPED;
	install_type PADMOUNT;
	primary_voltage 14376.02 V;
	secondary_voltage 120 V;
	power_rating 337.5;
	powerB_rating 337.5;
	resistance 0.00044;
	reactance 0.00030;
	shunt_impedance 991.485+1032.323j;
}

object transformer_configuration {
	name transformer_configuration_1368;
	connect_type SINGLE_PHASE_CENTER_TAPPED;
	install_type PADMOUNT;
	primary_voltage 14376.02 V;
	secondary_voltage 120 V;
	power_rating 50.0;
	powerB_rating 50.0;
	resistance 0.00300;
	reactance 0.00200;
	shunt_impedance 391.760+397.798j;
}

object transformer_configuration {
	name transformer_configuration_1369;
	connect_type SINGLE_PHASE_CENTER_TAPPED;
	install_type PADMOUNT;
	primary_voltage 14376.02 V;
	secondary_voltage 120 V;
	power_rating 15.0;
	powerB_rating 15.0;
	resistance 0.01000;
	reactance 0.00667;
	shunt_impedance 318.750+336.427j;
}

object transformer_configuration {
	name transformer_configuration_1370;
	connect_type SINGLE_PHASE_CENTER_TAPPED;
	install_type PADMOUNT;
	primary_voltage 14376.02 V;
	secondary_voltage 120 V;
	power_rating 25.0;
	powerB_rating 25.0;
	resistance 0.00600;
	reactance 0.00400;
	shunt_impedance 339.610+299.779j;
}

object transformer_configuration {
	name transformer_configuration_1371;
	connect_type SINGLE_PHASE_CENTER_TAPPED;
	install_type PADMOUNT;
	primary_voltage 14376.02 V;
	secondary_voltage 120 V;
	power_rating 5.0;
	powerB_rating 5.0;
	resistance 0.015;
	reactance 0.01;
	shunt_impedance 297.890+327.905j;
}

object transformer_configuration {
	name transformer_configuration_1372;
	connect_type SINGLE_PHASE_CENTER_TAPPED;
	install_type POLETOP;
	primary_voltage 14376.02 V;
	secondary_voltage 120 V;
	power_rating 37.5;
	powerB_rating 37.5;
	resistance 0.00400;
	reactance 0.00267;
	shunt_impedance 365.685+369.836j;
}

object transformer_configuration {
	name transformer_configuration_1373;
	connect_type SINGLE_PHASE_CENTER_TAPPED;
	install_type POLETOP;
	primary_voltage 14376.02 V;
	secondary_voltage 120 V;
	power_rating 75.0;
	powerB_rating 75.0;
	resistance 0.00200;
	reactance 0.00133;
	shunt_impedance 443.910+476.318j;
}

object transformer_configuration {
	name transformer_configuration_1374;
	connect_type SINGLE_PHASE_CENTER_TAPPED;
	install_type POLETOP;
	primary_voltage 14376.02 V;
	secondary_voltage 120 V;
	power_rating 150.0;
	powerB_rating 150.0;
	resistance 0.00100;
	reactance 0.00067;
	shunt_impedance 600.360+541.314j;
}

object transformer_configuration {
	name transformer_configuration_1375;
	connect_type SINGLE_PHASE_CENTER_TAPPED;
	install_type PADMOUNT;
	primary_voltage 14376.02 V;
	secondary_voltage 120 V;
	power_rating 75.0;
	powerB_rating 75.0;
	resistance 0.00200;
	reactance 0.00133;
	shunt_impedance 443.910+446.220j;
}

object transformer_configuration {
	name transformer_configuration_1376;
	connect_type SINGLE_PHASE_CENTER_TAPPED;
	install_type PADMOUNT;
	primary_voltage 14376.02 V;
	secondary_voltage 120 V;
	power_rating 150.0;
	powerB_rating 150.0;
	resistance 0.00100;
	reactance 0.00067;
	shunt_impedance 600.360+653.048j;
}

object transformer_configuration {
	name transformer_configuration_1377;
	connect_type SINGLE_PHASE_CENTER_TAPPED;
	install_type POLETOP;
	primary_voltage 14376.02 V;
	secondary_voltage 120 V;
	power_rating 400.0;
	powerB_rating 400.0;
	resistance 0.00038;
	reactance 0.00025;
	shunt_impedance 1121.860+1235.632j;
}

object transformer_configuration {
	name transformer_configuration_1378;
	connect_type SINGLE_PHASE_CENTER_TAPPED;
	install_type POLETOP;
	primary_voltage 14376.02 V;
	secondary_voltage 120 V;
	power_rating 62.5;
	powerB_rating 62.5;
	resistance 0.00240;
	reactance 0.00160;
	shunt_impedance 417.835+414.311j;
}

object transformer_configuration {
	name transformer_configuration_1379;
	connect_type SINGLE_PHASE_CENTER_TAPPED;
	install_type POLETOP;
	primary_voltage 14376.02 V;
	secondary_voltage 120 V;
	power_rating 15.0;
	powerC_rating 15.0;
	resistance 0.01000;
	reactance 0.00667;
	shunt_impedance 318.750+259.669j;
}

object transformer_configuration {
	name transformer_configuration_1380;
	connect_type SINGLE_PHASE_CENTER_TAPPED;
	install_type POLETOP;
	primary_voltage 14376.02 V;
	secondary_voltage 120 V;
	power_rating 10.0;
	powerC_rating 10.0;
	resistance 0.015;
	reactance 0.01;
	shunt_impedance 308.320+274.503j;
}

object transformer_configuration {
	name transformer_configuration_1381;
	connect_type SINGLE_PHASE_CENTER_TAPPED;
	install_type POLETOP;
	primary_voltage 14376.02 V;
	secondary_voltage 120 V;
	power_rating 175.0;
	powerC_rating 175.0;
	resistance 0.00086;
	reactance 0.00057;
	shunt_impedance 652.510+666.776j;
}

object transformer_configuration {
	name transformer_configuration_1382;
	connect_type SINGLE_PHASE_CENTER_TAPPED;
	install_type PADMOUNT;
	primary_voltage 14376.02 V;
	secondary_voltage 120 V;
	power_rating 10.0;
	powerC_rating 10.0;
	resistance 0.015;
	reactance 0.01;
	shunt_impedance 308.320+332.808j;
}

object transformer_configuration {
	name transformer_configuration_1383;
	connect_type SINGLE_PHASE_CENTER_TAPPED;
	install_type PADMOUNT;
	primary_voltage 14376.02 V;
	secondary_voltage 120 V;
	power_rating 50.0;
	powerC_rating 50.0;
	resistance 0.00300;
	reactance 0.00200;
	shunt_impedance 391.760+409.903j;
}

object transformer_configuration {
	name transformer_configuration_1384;
	connect_type SINGLE_PHASE_CENTER_TAPPED;
	install_type PADMOUNT;
	primary_voltage 14376.02 V;
	secondary_voltage 120 V;
	power_rating 500.0;
	powerC_rating 500.0;
	resistance 0.00030;
	reactance 0.00020;
	shunt_impedance 1330.460+1248.952j;
}

object transformer_configuration {
	name transformer_configuration_1385;
	connect_type SINGLE_PHASE_CENTER_TAPPED;
	install_type PADMOUNT;
	primary_voltage 14376.02 V;
	secondary_voltage 120 V;
	power_rating 75.0;
	powerC_rating 75.0;
	resistance 0.00200;
	reactance 0.00133;
	shunt_impedance 443.910+543.541j;
}

object transformer_configuration {
	name transformer_configuration_1386;
	connect_type SINGLE_PHASE_CENTER_TAPPED;
	install_type POLETOP;
	primary_voltage 14376.02 V;
	secondary_voltage 120 V;
	power_rating 25.0;
	powerC_rating 25.0;
	resistance 0.00600;
	reactance 0.00400;
	shunt_impedance 339.610+342.067j;
}

object transformer_configuration {
	name transformer_configuration_1387;
	connect_type SINGLE_PHASE_CENTER_TAPPED;
	install_type POLETOP;
	primary_voltage 14376.02 V;
	secondary_voltage 120 V;
	power_rating 5.0;
	powerC_rating 5.0;
	resistance 0.015;
	reactance 0.01;
	shunt_impedance 297.890+323.673j;
}

object transformer_configuration {
	name transformer_configuration_1388;
	connect_type SINGLE_PHASE_CENTER_TAPPED;
	install_type PADMOUNT;
	primary_voltage 14376.02 V;
	secondary_voltage 120 V;
	power_rating 25.0;
	powerC_rating 25.0;
	resistance 0.00600;
	reactance 0.00400;
	shunt_impedance 339.610+325.493j;
}

object transformer_configuration {
	name transformer_configuration_1389;
	connect_type SINGLE_PHASE_CENTER_TAPPED;
	install_type POLETOP;
	primary_voltage 14376.02 V;
	secondary_voltage 120 V;
	power_rating 100.0;
	powerC_rating 100.0;
	resistance 0.00150;
	reactance 0.00100;
	shunt_impedance 496.060+440.752j;
}

object transformer_configuration {
	name transformer_configuration_1390;
	connect_type SINGLE_PHASE_CENTER_TAPPED;
	install_type POLETOP;
	primary_voltage 14376.02 V;
	secondary_voltage 120 V;
	power_rating 200.0;
	powerC_rating 200.0;
	resistance 0.00075;
	reactance 0.00050;
	shunt_impedance 704.660+752.947j;
}

object transformer_configuration {
	name transformer_configuration_1391;
	connect_type SINGLE_PHASE_CENTER_TAPPED;
	install_type PADMOUNT;
	primary_voltage 14376.02 V;
	secondary_voltage 120 V;
	power_rating 125.0;
	powerC_rating 125.0;
	resistance 0.00120;
	reactance 0.00080;
	shunt_impedance 548.210+605.096j;
}

object transformer_configuration {
	name transformer_configuration_1392;
	connect_type SINGLE_PHASE_CENTER_TAPPED;
	install_type PADMOUNT;
	primary_voltage 14376.02 V;
	secondary_voltage 120 V;
	power_rating 100.0;
	powerC_rating 100.0;
	resistance 0.00150;
	reactance 0.00100;
	shunt_impedance 496.060+586.453j;
}

object transformer_configuration {
	name transformer_configuration_1393;
	connect_type SINGLE_PHASE_CENTER_TAPPED;
	install_type POLETOP;
	primary_voltage 14376.02 V;
	secondary_voltage 120 V;
	power_rating 75.0;
	powerC_rating 75.0;
	resistance 0.00200;
	reactance 0.00133;
	shunt_impedance 443.910+420.428j;
}

object transformer_configuration {
	name transformer_configuration_1394;
	connect_type SINGLE_PHASE_CENTER_TAPPED;
	install_type PADMOUNT;
	primary_voltage 14376.02 V;
	secondary_voltage 120 V;
	power_rating 337.5;
	powerC_rating 337.5;
	resistance 0.00044;
	reactance 0.00030;
	shunt_impedance 991.485+830.075j;
}

object transformer_configuration {
	name transformer_configuration_1395;
	connect_type SINGLE_PHASE_CENTER_TAPPED;
	install_type PADMOUNT;
	primary_voltage 14376.02 V;
	secondary_voltage 120 V;
	power_rating 15.0;
	powerC_rating 15.0;
	resistance 0.01000;
	reactance 0.00667;
	shunt_impedance 318.750+370.302j;
}

object transformer_configuration {
	name transformer_configuration_1396;
	connect_type SINGLE_PHASE_CENTER_TAPPED;
	install_type POLETOP;
	primary_voltage 14376.02 V;
	secondary_voltage 120 V;
	power_rating 50.0;
	powerC_rating 50.0;
	resistance 0.00300;
	reactance 0.00200;
	shunt_impedance 391.760+402.108j;
}

object transformer_configuration {
	name transformer_configuration_1397;
	connect_type SINGLE_PHASE_CENTER_TAPPED;
	install_type POLETOP;
	primary_voltage 14376.02 V;
	secondary_voltage 120 V;
	power_rating 125.0;
	powerC_rating 125.0;
	resistance 0.00120;
	reactance 0.00080;
	shunt_impedance 548.210+486.419j;
}

object transformer_configuration {
	name transformer_configuration_1398;
	connect_type SINGLE_PHASE_CENTER_TAPPED;
	install_type PADMOUNT;
	primary_voltage 14376.02 V;
	secondary_voltage 120 V;
	power_rating 5.0;
	powerC_rating 5.0;
	resistance 0.015;
	reactance 0.01;
	shunt_impedance 297.890+281.233j;
}

object transformer_configuration {
	name transformer_configuration_1399;
	connect_type SINGLE_PHASE_CENTER_TAPPED;
	install_type POLETOP;
	primary_voltage 14376.02 V;
	secondary_voltage 120 V;
	power_rating 37.5;
	powerC_rating 37.5;
	resistance 0.00400;
	reactance 0.00267;
	shunt_impedance 365.685+336.107j;
}

object transformer_configuration {
	name transformer_configuration_1400;
	connect_type SINGLE_PHASE_CENTER_TAPPED;
	install_type PADMOUNT;
	primary_voltage 14376.02 V;
	secondary_voltage 120 V;
	power_rating 150.0;
	powerC_rating 150.0;
	resistance 0.00100;
	reactance 0.00067;
	shunt_impedance 600.360+670.062j;
}

object transformer_configuration {
	name transformer_configuration_1401;
	connect_type SINGLE_PHASE_CENTER_TAPPED;
	install_type PADMOUNT;
	primary_voltage 14376.02 V;
	secondary_voltage 120 V;
	power_rating 175.0;
	powerC_rating 175.0;
	resistance 0.00086;
	reactance 0.00057;
	shunt_impedance 652.510+691.145j;
}

object transformer_configuration {
	name transformer_configuration_1402;
	connect_type SINGLE_PHASE_CENTER_TAPPED;
	install_type PADMOUNT;
	primary_voltage 14376.02 V;
	secondary_voltage 120 V;
	power_rating 300.0;
	powerC_rating 300.0;
	resistance 0.00050;
	reactance 0.00033;
	shunt_impedance 913.260+935.429j;
}

object transformer_configuration {
	name transformer_configuration_1403;
	connect_type SINGLE_PHASE_CENTER_TAPPED;
	install_type POLETOP;
	primary_voltage 14376.02 V;
	secondary_voltage 120 V;
	power_rating 62.5;
	powerC_rating 62.5;
	resistance 0.00240;
	reactance 0.00160;
	shunt_impedance 417.835+427.883j;
}

object transformer_configuration {
	name transformer_configuration_1606;
	connect_type WYE_WYE;
	install_type PADMOUNT;
	primary_voltage 24900.000 V;
	secondary_voltage 480 V;
	power_rating 900.0;
	powerA_rating 300.0;
	powerB_rating 300.0;
	powerC_rating 300.0;
	resistance 0.00011;
	reactance 0.00056;
	shunt_impedance 2164.860+1987.017j;
}

object transformer_configuration {
	name transformer_configuration_1607;
	connect_type WYE_WYE;
	install_type POLETOP;
	primary_voltage 24900.000 V;
	secondary_voltage 480 V;
	power_rating 300.0;
	powerA_rating 100.0;
	powerB_rating 100.0;
	powerC_rating 100.0;
	resistance 0.00033;
	reactance 0.00167;
	shunt_impedance 913.260+1003.957j;
}

object transformer_configuration {
	name transformer_configuration_1608;
	connect_type WYE_WYE;
	install_type PADMOUNT;
	primary_voltage 24900.000 V;
	secondary_voltage 480 V;
	power_rating 750.0;
	powerA_rating 250.0;
	powerB_rating 250.0;
	powerC_rating 250.0;
	resistance 0.00013;
	reactance 0.00067;
	shunt_impedance 1851.960+1916.111j;
}

object transformer_configuration {
	name transformer_configuration_1609;
	connect_type WYE_WYE;
	install_type PADMOUNT;
	primary_voltage 24900.000 V;
	secondary_voltage 480 V;
	power_rating 187.5;
	powerA_rating 62.5;
	powerB_rating 62.5;
	powerC_rating 62.5;
	resistance 0.00053;
	reactance 0.00267;
	shunt_impedance 678.585+660.865j;
}

object transformer_configuration {
	name transformer_configuration_1610;
	connect_type WYE_WYE;
	install_type POLETOP;
	primary_voltage 24900.000 V;
	secondary_voltage 480 V;
	power_rating 150.0;
	powerA_rating 50.0;
	powerB_rating 50.0;
	powerC_rating 50.0;
	resistance 0.00067;
	reactance 0.00333;
	shunt_impedance 600.360+589.271j;
}

object transformer_configuration {
	name transformer_configuration_1611;
	connect_type WYE_WYE;
	install_type POLETOP;
	primary_voltage 24900.000 V;
	secondary_voltage 480 V;
	power_rating 75.0;
	powerA_rating 25.0;
	powerB_rating 25.0;
	powerC_rating 25.0;
	resistance 0.00133;
	reactance 0.00667;
	shunt_impedance 443.910+439.394j;
}

object transformer_configuration {
	name transformer_configuration_1612;
	connect_type WYE_WYE;
	install_type POLETOP;
	primary_voltage 24900.000 V;
	secondary_voltage 480 V;
	power_rating 10.0;
	powerC_rating 10.0;
	resistance 0.01;
	reactance 0.05;
	shunt_impedance 308.320+280.971j;
}

object transformer_configuration {
	name transformer_configuration_1613;
	connect_type WYE_WYE;
	install_type POLETOP;
	primary_voltage 24900.000 V;
	secondary_voltage 480 V;
	power_rating 525.0;
	powerA_rating 175.0;
	powerB_rating 175.0;
	powerC_rating 175.0;
	resistance 0.00019;
	reactance 0.00095;
	shunt_impedance 1382.610+1485.114j;
}

object transformer_configuration {
	name transformer_configuration_1614;
	connect_type WYE_WYE;
	install_type POLETOP;
	primary_voltage 24900.000 V;
	secondary_voltage 480 V;
	power_rating 25.0;
	powerC_rating 25.0;
	resistance 0.00400;
	reactance 0.02000;
	shunt_impedance 339.610+386.891j;
}

object transformer_configuration {
	name transformer_configuration_1615;
	connect_type WYE_WYE;
	install_type PADMOUNT;
	primary_voltage 24900.000 V;
	secondary_voltage 480 V;
	power_rating 525.0;
	powerA_rating 175.0;
	powerB_rating 175.0;
	powerC_rating 175.0;
	resistance 0.00019;
	reactance 0.00095;
	shunt_impedance 1382.610+1724.654j;
}

object transformer_configuration {
	name transformer_configuration_1616;
	connect_type WYE_WYE;
	install_type POLETOP;
	primary_voltage 24900.000 V;
	secondary_voltage 480 V;
	power_rating 100.0;
	powerC_rating 100.0;
	resistance 0.00100;
	reactance 0.00500;
	shunt_impedance 496.060+521.057j;
}

object transformer_configuration {
	name transformer_configuration_1617;
	connect_type WYE_WYE;
	install_type PADMOUNT;
	primary_voltage 24900.000 V;
	secondary_voltage 480 V;
	power_rating 375.0;
	powerA_rating 125.0;
	powerB_rating 125.0;
	powerC_rating 125.0;
	resistance 0.00027;
	reactance 0.00133;
	shunt_impedance 1069.710+981.728j;
}

object transformer_configuration {
	name transformer_configuration_1618;
	connect_type WYE_WYE;
	install_type PADMOUNT;
	primary_voltage 24900.000 V;
	secondary_voltage 480 V;
	power_rating 25.0;
	powerB_rating 25.0;
	resistance 0.00400;
	reactance 0.02000;
	shunt_impedance 339.610+346.436j;
}

object transformer_configuration {
	name transformer_configuration_1619;
	connect_type WYE_WYE;
	install_type POLETOP;
	primary_voltage 24900.000 V;
	secondary_voltage 480 V;
	power_rating 30.0;
	powerA_rating 10.0;
	powerB_rating 10.0;
	powerC_rating 10.0;
	resistance 0.00333;
	reactance 0.01667;
	shunt_impedance 350.040+314.789j;
}

object transformer_configuration {
	name transformer_configuration_1620;
	connect_type WYE_WYE;
	install_type PADMOUNT;
	primary_voltage 24900.000 V;
	secondary_voltage 480 V;
	power_rating 10.0;
	powerC_rating 10.0;
	resistance 0.01;
	reactance 0.05;
	shunt_impedance 308.320+289.415j;
}

object transformer_configuration {
	name transformer_configuration_1621;
	connect_type WYE_WYE;
	install_type PADMOUNT;
	primary_voltage 24900.000 V;
	secondary_voltage 480 V;
	power_rating 225.0;
	powerA_rating 75.0;
	powerB_rating 75.0;
	powerC_rating 75.0;
	resistance 0.00044;
	reactance 0.00222;
	shunt_impedance 756.810+706.939j;
}

object transformer_configuration {
	name transformer_configuration_1622;
	connect_type WYE_WYE;
	install_type POLETOP;
	primary_voltage 24900.000 V;
	secondary_voltage 480 V;
	power_rating 225.0;
	powerA_rating 75.0;
	powerB_rating 75.0;
	powerC_rating 75.0;
	resistance 0.00044;
	reactance 0.00222;
	shunt_impedance 756.810+693.750j;
}

object transformer_configuration {
	name transformer_configuration_1623;
	connect_type WYE_WYE;
	install_type PADMOUNT;
	primary_voltage 24900.000 V;
	secondary_voltage 480 V;
	power_rating 62.5;
	powerC_rating 62.5;
	resistance 0.00160;
	reactance 0.00800;
	shunt_impedance 417.835+433.637j;
}

object transformer_configuration {
	name transformer_configuration_1624;
	connect_type WYE_WYE;
	install_type POLETOP;
	primary_voltage 24900.000 V;
	secondary_voltage 480 V;
	power_rating 90.0;
	powerA_rating 30.0;
	powerB_rating 30.0;
	powerC_rating 30.0;
	resistance 0.00111;
	reactance 0.00556;
	shunt_impedance 475.200+422.199j;
}

object transformer_configuration {
	name transformer_configuration_1625;
	connect_type WYE_WYE;
	install_type PADMOUNT;
	primary_voltage 24900.000 V;
	secondary_voltage 480 V;
	power_rating 30.0;
	powerA_rating 10.0;
	powerB_rating 10.0;
	powerC_rating 10.0;
	resistance 0.00333;
	reactance 0.01667;
	shunt_impedance 350.040+373.396j;
}

object transformer_configuration {
	name transformer_configuration_1626;
	connect_type WYE_WYE;
	install_type PADMOUNT;
	primary_voltage 24900.000 V;
	secondary_voltage 480 V;
	power_rating 75.0;
	powerA_rating 25.0;
	powerB_rating 25.0;
	powerC_rating 25.0;
	resistance 0.00133;
	reactance 0.00667;
	shunt_impedance 443.910+479.216j;
}

object transformer_configuration {
	name transformer_configuration_1627;
	connect_type WYE_WYE;
	install_type PADMOUNT;
	primary_voltage 24900.000 V;
	secondary_voltage 480 V;
	power_rating 50.0;
	powerC_rating 50.0;
	resistance 0.00200;
	reactance 0.01000;
	shunt_impedance 391.760+432.405j;
}

object transformer_configuration {
	name transformer_configuration_1628;
	connect_type WYE_WYE;
	install_type POLETOP;
	primary_voltage 24900.000 V;
	secondary_voltage 480 V;
	power_rating 750.0;
	powerA_rating 250.0;
	powerB_rating 250.0;
	powerC_rating 250.0;
	resistance 0.00013;
	reactance 0.00067;
	shunt_impedance 1851.960+1848.176j;
}

object transformer_configuration {
	name transformer_configuration_1629;
	connect_type WYE_WYE;
	install_type PADMOUNT;
	primary_voltage 24900.000 V;
	secondary_voltage 480 V;
	power_rating 45.0;
	powerA_rating 15.0;
	powerB_rating 15.0;
	powerC_rating 15.0;
	resistance 0.00222;
	reactance 0.01111;
	shunt_impedance 381.330+404.933j;
}

object transformer_configuration {
	name transformer_configuration_1630;
	connect_type WYE_WYE;
	install_type PADMOUNT;
	primary_voltage 24900.000 V;
	secondary_voltage 480 V;
	power_rating 300.0;
	powerA_rating 100.0;
	powerB_rating 100.0;
	powerC_rating 100.0;
	resistance 0.00033;
	reactance 0.00167;
	shunt_impedance 913.260+1077.927j;
}

object transformer_configuration {
	name transformer_configuration_1631;
	connect_type WYE_WYE;
	install_type PADMOUNT;
	primary_voltage 24900.000 V;
	secondary_voltage 480 V;
	power_rating 87.5;
	powerC_rating 87.5;
	resistance 0.00114;
	reactance 0.00571;
	shunt_impedance 469.985+472.476j;
}

object transformer_configuration {
	name transformer_configuration_1632;
	connect_type WYE_WYE;
	install_type POLETOP;
	primary_voltage 24900.000 V;
	secondary_voltage 480 V;
	power_rating 75.0;
	powerA_rating 75.0;
	resistance 0.00133;
	reactance 0.00667;
	shunt_impedance 443.910+436.013j;
}

object transformer_configuration {
	name transformer_configuration_1633;
	connect_type WYE_WYE;
	install_type POLETOP;
	primary_voltage 24900.000 V;
	secondary_voltage 480 V;
	power_rating 87.5;
	powerC_rating 87.5;
	resistance 0.00114;
	reactance 0.00571;
	shunt_impedance 469.985+553.289j;
}

object transformer_configuration {
	name transformer_configuration_1634;
	connect_type WYE_WYE;
	install_type PADMOUNT;
	primary_voltage 24900.000 V;
	secondary_voltage 480 V;
	power_rating 1500.0;
	powerA_rating 500.0;
	powerB_rating 500.0;
	powerC_rating 500.0;
	resistance 0.00007;
	reactance 0.00033;
	shunt_impedance 3416.460+2559.337j;
}

object transformer_configuration {
	name transformer_configuration_1635;
	connect_type WYE_WYE;
	install_type POLETOP;
	primary_voltage 24900.000 V;
	secondary_voltage 480 V;
	power_rating 1012.5;
	powerA_rating 337.5;
	powerB_rating 337.5;
	powerC_rating 337.5;
	resistance 0.00010;
	reactance 0.00049;
	shunt_impedance 2399.535+2289.975j;
}

object transformer_configuration {
	name transformer_configuration_1636;
	connect_type WYE_WYE;
	install_type PADMOUNT;
	primary_voltage 24900.000 V;
	secondary_voltage 480 V;
	power_rating 75.0;
	powerC_rating 75.0;
	resistance 0.00133;
	reactance 0.00667;
	shunt_impedance 443.910+551.797j;
}

object transformer_configuration {
	name transformer_configuration_1637;
	connect_type WYE_WYE;
	install_type POLETOP;
	primary_voltage 24900.000 V;
	secondary_voltage 480 V;
	power_rating 50.0;
	powerC_rating 50.0;
	resistance 0.00200;
	reactance 0.01000;
	shunt_impedance 391.760+373.290j;
}

object transformer_configuration {
	name transformer_configuration_1638;
	connect_type WYE_WYE;
	install_type POLETOP;
	primary_voltage 24900.000 V;
	secondary_voltage 480 V;
	power_rating 1500.0;
	powerA_rating 500.0;
	powerB_rating 500.0;
	powerC_rating 500.0;
	resistance 0.00007;
	reactance 0.00033;
	shunt_impedance 3416.460+3225.026j;
}

object transformer_configuration {
	name transformer_configuration_1639;
	connect_type WYE_WYE;
	install_type POLETOP;
	primary_voltage 24900.000 V;
	secondary_voltage 480 V;
	power_rating 62.5;
	powerC_rating 62.5;
	resistance 0.00160;
	reactance 0.00800;
	shunt_impedance 417.835+366.589j;
}

object transformer_configuration {
	name transformer_configuration_1640;
	connect_type WYE_WYE;
	install_type PADMOUNT;
	primary_voltage 24900.000 V;
	secondary_voltage 480 V;
	power_rating 412.5;
	powerA_rating 137.5;
	powerB_rating 137.5;
	powerC_rating 137.5;
	resistance 0.00024;
	reactance 0.00121;
	shunt_impedance 1147.935+1238.961j;
}

object transformer_configuration {
	name transformer_configuration_1641;
	connect_type WYE_WYE;
	install_type PADMOUNT;
	primary_voltage 24900.000 V;
	secondary_voltage 480 V;
	power_rating 15.0;
	powerA_rating 5.0;
	powerB_rating 5.0;
	powerC_rating 5.0;
	resistance 0.00667;
	reactance 0.03333;
	shunt_impedance 318.750+251.496j;
}

object transformer_configuration {
	name transformer_configuration_1642;
	connect_type WYE_WYE;
	install_type PADMOUNT;
	primary_voltage 24900.000 V;
	secondary_voltage 480 V;
	power_rating 15.0;
	powerC_rating 15.0;
	resistance 0.00667;
	reactance 0.03333;
	shunt_impedance 318.750+293.269j;
}

object transformer_configuration {
	name transformer_configuration_1643;
	connect_type WYE_WYE;
	install_type POLETOP;
	primary_voltage 24900.000 V;
	secondary_voltage 480 V;
	power_rating 15.0;
	powerC_rating 15.0;
	resistance 0.00667;
	reactance 0.03333;
	shunt_impedance 318.750+336.822j;
}

object transformer_configuration {
	name transformer_configuration_1644;
	connect_type WYE_WYE;
	install_type POLETOP;
	primary_voltage 24900.000 V;
	secondary_voltage 480 V;
	power_rating 45.0;
	powerA_rating 15.0;
	powerB_rating 15.0;
	powerC_rating 15.0;
	resistance 0.00222;
	reactance 0.01111;
	shunt_impedance 381.330+381.275j;
}

object transformer_configuration {
	name transformer_configuration_1645;
	connect_type WYE_WYE;
	install_type POLETOP;
	primary_voltage 24900.000 V;
	secondary_voltage 480 V;
	power_rating 2250.0;
	powerA_rating 750.0;
	powerB_rating 750.0;
	powerC_rating 750.0;
	resistance 0.00004;
	reactance 0.00022;
	shunt_impedance 4980.960+5291.734j;
}

object transformer_configuration {
	name transformer_configuration_1646;
	connect_type WYE_WYE;
	install_type PADMOUNT;
	primary_voltage 24900.000 V;
	secondary_voltage 480 V;
	power_rating 1012.5;
	powerA_rating 337.5;
	powerB_rating 337.5;
	powerC_rating 337.5;
	resistance 0.00010;
	reactance 0.00049;
	shunt_impedance 2399.535+2429.875j;
}

object triplex_line_conductor {
	name triplex_4/0 AA;
	resistance 0.48;
	geometric_mean_radius 0.0158;
}

object triplex_line_configuration {
	name triplex_line_configuration_1;
	conductor_1 triplex_4/0 AA;
	conductor_2 triplex_4/0 AA;
	conductor_N triplex_4/0 AA;
	insulation_thickness 0.08;
	diameter 0.522;
}

object underground_line_conductor {
	name underground_line_conductor_2;
	rating.summer.continuous 142.0;
	outer_diameter 1.27;
	conductor_gmr 0.01142 ft;
	conductor_diameter 0.362;
	conductor_resistance 0.88704;
	neutral_gmr 0.0489686771417213 ft;
	neutral_resistance 13.86528;
	neutral_diameter 0.0641;
	neutral_strands 16.0;
	shield_gmr 0.00;
	shield_resistance 0.00;
}

object underground_line_conductor {
	name underground_line_conductor_4;
	rating.summer.continuous 112.0;
	outer_diameter 1.09;
	conductor_gmr 0.0088 ft;
	conductor_diameter 0.292;
	conductor_resistance 1.38336;
	neutral_gmr 0.0348162687755351 ft;
	neutral_resistance 13.5696;
	neutral_diameter 0.0641;
	neutral_strands 6.0;
	shield_gmr 0.00;
	shield_resistance 0.00;
}

object underground_line_conductor {
	name underground_line_conductor_5;
	rating.summer.continuous 564.0;
	outer_diameter 2.291;
	conductor_gmr 0.03592 ft;
	conductor_diameter 1.117;
	conductor_resistance 0.093456;
	neutral_gmr 0.0897578842950715 ft;
	neutral_resistance 5.48592;
	neutral_diameter 0.1019;
	neutral_strands 20.0;
	shield_gmr 0.00;
	shield_resistance 0.00;
}

object transformer_configuration {
	name trans_config_to_feeder;
	connect_type WYE_WYE;
	install_type PADMOUNT;
	primary_voltage 230000;
	secondary_voltage 24900.000;
	power_rating 19.3 MVA;
	impedance 0.00033+0.0022j;
}

object meter {
	name network_node;
	bustype SWING;
	nominal_voltage 230000;
	object player {
		property voltage_A;
		loop 100;
		file V_A.player;
		};
	object player {
		property voltage_B;
		loop 100;
		file V_B.player;
		};
	object player {
		property voltage_C;
		loop 100;
		file V_C.player;
		};
	phases ABCN;
}

object transformer {
	name substation_transformer;
	from network_node;
	to R2-25-00-1_node_324;
	phases ABCN;
	configuration trans_config_to_feeder;
}

object regulator {
	name R2-25-00-1_reg_1;
	from R2-25-00-1_node_324;
	to R2-25-00-1_meter_73_comm;
	phases ABCN;
	configuration feeder_reg_cfg;
}

object capacitor {
	name R2-25-00-1_cap_1;
	phases ABCN;
	pt_phase B;
	parent R2-25-00-1_node_35;
	phases_connected ABC;
	control VOLT;
	voltage_set_high 14500;
	voltage_set_low 13500;
	capacitor_A 0.4 MVAr;
	capacitor_B 0.4 MVAr;
	capacitor_C 0.4 MVAr;
	control_level INDIVIDUAL;
	time_delay 30.0;
	dwell_time 30.0;
	cap_nominal_voltage 14380;
	nominal_voltage 14376.02;
}

object capacitor {
	name R2-25-00-1_cap_2;
	phases ABCN;
	pt_phase B;
	parent R2-25-00-1_node_104;
	phases_connected ABC;
	control VOLT;
	voltage_set_high 14500;
	voltage_set_low 13500;
	capacitor_A 0.4 MVAr;
	capacitor_B 0.4 MVAr;
	capacitor_C 0.4 MVAr;
	control_level INDIVIDUAL;
	time_delay 30.0;
	dwell_time 30.0;
	cap_nominal_voltage 14380;
	nominal_voltage 14376.02;
}

object capacitor {
	name R2-25-00-1_cap_3;
	phases ABCN;
	pt_phase B;
	parent R2-25-00-1_node_164;
	phases_connected ABC;
	control VOLT;
	voltage_set_high 14500;
	voltage_set_low 13500;
	capacitor_A 0.4 MVAr;
	capacitor_B 0.4 MVAr;
	capacitor_C 0.4 MVAr;
	control_level INDIVIDUAL;
	time_delay 30.0;
	dwell_time 30.0;
	cap_nominal_voltage 14380;
	nominal_voltage 14376.02;
}

object capacitor {
	name R2-25-00-1_cap_4;
	phases ABCN;
	pt_phase B;
	parent R2-25-00-1_node_265;
	phases_connected ABC;
	control VOLT;
	voltage_set_high 14500;
	voltage_set_low 13500;
	capacitor_A 0.3 MVAr;
	capacitor_B 0.3 MVAr;
	capacitor_C 0.3 MVAr;
	control_level INDIVIDUAL;
	time_delay 30.0;
	dwell_time 30.0;
	cap_nominal_voltage 14380;
	nominal_voltage 14376.02;
}

object capacitor {
	name R2-25-00-1_cap_5;
	phases ABCN;
	pt_phase B;
	parent R2-25-00-1_node_268;
	phases_connected ABC;
	control MANUAL;
	capacitor_A 0.4 MVAr;
	capacitor_B 0.4 MVAr;
	capacitor_C 0.4 MVAr;
	control_level INDIVIDUAL;
	time_delay 30.0;
	dwell_time 30.0;
	cap_nominal_voltage 14380;
	nominal_voltage 14376.02;
}

object fuse {
	name R2-25-00-1_fuse_1;
	phases ABCN;
	from R2-25-00-1_node_241;
	to R2-25-00-1_node_11;
	current_limit 50000;
	status CLOSED;
}

object fuse {
	name R2-25-00-1_fuse_2;
	phases ABCN;
	from R2-25-00-1_node_18;
	to R2-25-00-1_node_12;
	current_limit 50000;
	status CLOSED;
}

object fuse {
	name R2-25-00-1_fuse_3;
	phases ABCN;
	from R2-25-00-1_node_128;
	to R2-25-00-1_node_13;
	current_limit 50000;
	status CLOSED;
}

object fuse {
	name R2-25-00-1_fuse_4;
	phases AN;
	from R2-25-00-1_node_284;
	to R2-25-00-1_node_16;
	current_limit 50000;
	status CLOSED;
}

object fuse {
	name R2-25-00-1_fuse_5;
	phases BN;
	from R2-25-00-1_node_191;
	to R2-25-00-1_node_17;
	current_limit 50000;
	status CLOSED;
}

object fuse {
	name R2-25-00-1_fuse_6;
	phases ABCN;
	from R2-25-00-1_node_134;
	to R2-25-00-1_node_20;
	current_limit 50000;
	status CLOSED;
}

object fuse {
	name R2-25-00-1_fuse_7;
	phases AN;
	from R2-25-00-1_node_236;
	to R2-25-00-1_node_34;
	current_limit 50000;
	status CLOSED;
}

object fuse {
	name R2-25-00-1_fuse_8;
	phases ABCN;
	from R2-25-00-1_node_141;
	to R2-25-00-1_node_41;
	current_limit 50000;
	status CLOSED;
}

object fuse {
	name R2-25-00-1_fuse_9;
	phases CN;
	from R2-25-00-1_node_48;
	to R2-25-00-1_node_319;
	current_limit 50000;
	status CLOSED;
}

object fuse {
	name R2-25-00-1_fuse_10;
	phases CN;
	from R2-25-00-1_node_237;
	to R2-25-00-1_node_49;
	current_limit 50000;
	status CLOSED;
}

object fuse {
	name R2-25-00-1_fuse_11;
	phases ABCN;
	from R2-25-00-1_node_248;
	to R2-25-00-1_node_50;
	current_limit 50000;
	status CLOSED;
}

object fuse {
	name R2-25-00-1_fuse_12;
	phases CN;
	from R2-25-00-1_node_107;
	to R2-25-00-1_node_52;
	current_limit 50000;
	status CLOSED;
}

object fuse {
	name R2-25-00-1_fuse_13;
	phases ABCN;
	from R2-25-00-1_node_108;
	to R2-25-00-1_node_61;
	current_limit 50000;
	status CLOSED;
}

object fuse {
	name R2-25-00-1_fuse_14;
	phases BN;
	from R2-25-00-1_node_175;
	to R2-25-00-1_node_65;
	current_limit 50000;
	status CLOSED;
}

object fuse {
	name R2-25-00-1_fuse_15;
	phases AN;
	from R2-25-00-1_node_66;
	to R2-25-00-1_node_320;
	current_limit 50000;
	status CLOSED;
}

object fuse {
	name R2-25-00-1_fuse_16;
	phases BN;
	from R2-25-00-1_node_45;
	to R2-25-00-1_node_72;
	current_limit 50000;
	status CLOSED;
}

object fuse {
	name R2-25-00-1_fuse_17;
	phases BN;
	from R2-25-00-1_node_17;
	to R2-25-00-1_node_77;
	current_limit 50000;
	status CLOSED;
}

object fuse {
	name R2-25-00-1_fuse_18;
	phases ABCN;
	from R2-25-00-1_node_287;
	to R2-25-00-1_node_87;
	current_limit 50000;
	status CLOSED;
}

object fuse {
	name R2-25-00-1_fuse_19;
	phases ABCN;
	from R2-25-00-1_node_113;
	to R2-25-00-1_node_101;
	current_limit 50000;
	status CLOSED;
}

object fuse {
	name R2-25-00-1_fuse_20;
	phases ABCN;
	from R2-25-00-1_node_223;
	to R2-25-00-1_node_103;
	current_limit 50000;
	status CLOSED;
}

object fuse {
	name R2-25-00-1_fuse_21;
	phases ABCN;
	from R2-25-00-1_node_249;
	to R2-25-00-1_node_118;
	current_limit 50000;
	status CLOSED;
}

object fuse {
	name R2-25-00-1_fuse_22;
	phases ABCN;
	from R2-25-00-1_node_222;
	to R2-25-00-1_node_119;
	current_limit 50000;
	status CLOSED;
}

object fuse {
	name R2-25-00-1_fuse_23;
	phases BN;
	from R2-25-00-1_node_149;
	to R2-25-00-1_node_124;
	current_limit 50000;
	status CLOSED;
}

object fuse {
	name R2-25-00-1_fuse_24;
	phases CN;
	from R2-25-00-1_node_31;
	to R2-25-00-1_node_125;
	current_limit 50000;
	status CLOSED;
}

object fuse {
	name R2-25-00-1_fuse_25;
	phases BN;
	from R2-25-00-1_node_206;
	to R2-25-00-1_node_126;
	current_limit 50000;
	status CLOSED;
}

object fuse {
	name R2-25-00-1_fuse_26;
	phases CN;
	from R2-25-00-1_node_262;
	to R2-25-00-1_node_132;
	current_limit 50000;
	status CLOSED;
}

object fuse {
	name R2-25-00-1_fuse_27;
	phases CN;
	from R2-25-00-1_node_228;
	to R2-25-00-1_node_142;
	current_limit 50000;
	status CLOSED;
}

object fuse {
	name R2-25-00-1_fuse_28;
	phases ABCN;
	from R2-25-00-1_node_145;
	to R2-25-00-1_node_146;
	current_limit 50000;
	status CLOSED;
}

object fuse {
	name R2-25-00-1_fuse_29;
	phases AN;
	from R2-25-00-1_node_68;
	to R2-25-00-1_node_147;
	current_limit 50000;
	status CLOSED;
}

object fuse {
	name R2-25-00-1_fuse_30;
	phases CN;
	from R2-25-00-1_node_94;
	to R2-25-00-1_node_148;
	current_limit 50000;
	status CLOSED;
}

object fuse {
	name R2-25-00-1_fuse_31;
	phases CN;
	from R2-25-00-1_node_92;
	to R2-25-00-1_node_155;
	current_limit 50000;
	status CLOSED;
}

object fuse {
	name R2-25-00-1_fuse_32;
	phases AN;
	from R2-25-00-1_node_70;
	to R2-25-00-1_node_158;
	current_limit 50000;
	status CLOSED;
}

object fuse {
	name R2-25-00-1_fuse_33;
	phases CN;
	from R2-25-00-1_node_92;
	to R2-25-00-1_node_177;
	current_limit 50000;
	status CLOSED;
}

object fuse {
	name R2-25-00-1_fuse_34;
	phases CN;
	from R2-25-00-1_node_117;
	to R2-25-00-1_node_181;
	current_limit 50000;
	status CLOSED;
}

object fuse {
	name R2-25-00-1_fuse_35;
	phases AN;
	from R2-25-00-1_node_163;
	to R2-25-00-1_node_192;
	current_limit 50000;
	status CLOSED;
}

object fuse {
	name R2-25-00-1_fuse_36;
	phases ABCN;
	from R2-25-00-1_node_105;
	to R2-25-00-1_node_193;
	current_limit 50000;
	status CLOSED;
}

object fuse {
	name R2-25-00-1_fuse_37;
	phases CN;
	from R2-25-00-1_node_62;
	to R2-25-00-1_node_194;
	current_limit 50000;
	status CLOSED;
}

object fuse {
	name R2-25-00-1_fuse_38;
	phases CN;
	from R2-25-00-1_node_306;
	to R2-25-00-1_node_195;
	current_limit 50000;
	status CLOSED;
}

object fuse {
	name R2-25-00-1_fuse_39;
	phases BN;
	from R2-25-00-1_node_27;
	to R2-25-00-1_node_196;
	current_limit 50000;
	status CLOSED;
}

object fuse {
	name R2-25-00-1_fuse_40;
	phases ABCN;
	from R2-25-00-1_node_234;
	to R2-25-00-1_node_201;
	current_limit 50000;
	status CLOSED;
}

object fuse {
	name R2-25-00-1_fuse_41;
	phases BN;
	from R2-25-00-1_node_63;
	to R2-25-00-1_node_215;
	current_limit 50000;
	status CLOSED;
}

object fuse {
	name R2-25-00-1_fuse_42;
	phases CN;
	from R2-25-00-1_node_200;
	to R2-25-00-1_node_231;
	current_limit 50000;
	status CLOSED;
}

object fuse {
	name R2-25-00-1_fuse_43;
	phases ABCN;
	from R2-25-00-1_node_204;
	to R2-25-00-1_node_232;
	current_limit 50000;
	status CLOSED;
}

object fuse {
	name R2-25-00-1_fuse_44;
	phases AN;
	from R2-25-00-1_node_36;
	to R2-25-00-1_node_238;
	current_limit 50000;
	status CLOSED;
}

object fuse {
	name R2-25-00-1_fuse_45;
	phases BN;
	from R2-25-00-1_node_89;
	to R2-25-00-1_node_245;
	current_limit 50000;
	status CLOSED;
}

object fuse {
	name R2-25-00-1_fuse_46;
	phases BN;
	from R2-25-00-1_node_217;
	to R2-25-00-1_node_247;
	current_limit 50000;
	status CLOSED;
}

object fuse {
	name R2-25-00-1_fuse_47;
	phases AN;
	from R2-25-00-1_node_70;
	to R2-25-00-1_node_254;
	current_limit 50000;
	status CLOSED;
}

object fuse {
	name R2-25-00-1_fuse_48;
	phases CN;
	from R2-25-00-1_node_227;
	to R2-25-00-1_node_259;
	current_limit 50000;
	status CLOSED;
}

object fuse {
	name R2-25-00-1_fuse_49;
	phases ABCN;
	from R2-25-00-1_node_296;
	to R2-25-00-1_node_267;
	current_limit 50000;
	status CLOSED;
}

object fuse {
	name R2-25-00-1_fuse_50;
	phases AN;
	from R2-25-00-1_node_217;
	to R2-25-00-1_node_270;
	current_limit 50000;
	status CLOSED;
}

object fuse {
	name R2-25-00-1_fuse_51;
	phases BN;
	from R2-25-00-1_node_129;
	to R2-25-00-1_node_292;
	current_limit 50000;
	status CLOSED;
}

object fuse {
	name R2-25-00-1_fuse_52;
	phases ABCN;
	from R2-25-00-1_node_188;
	to R2-25-00-1_node_299;
	current_limit 50000;
	status CLOSED;
}

object fuse {
	name R2-25-00-1_fuse_53;
	phases CN;
	from R2-25-00-1_node_49;
	to R2-25-00-1_node_301;
	current_limit 50000;
	status CLOSED;
}

object fuse {
	name R2-25-00-1_fuse_54;
	phases ABCN;
	from R2-25-00-1_node_293;
	to R2-25-00-1_node_303;
	current_limit 50000;
	status CLOSED;
}

object fuse {
	name R2-25-00-1_fuse_55;
	phases CN;
	from R2-25-00-1_node_42;
	to R2-25-00-1_node_307;
	current_limit 50000;
	status CLOSED;
}

object fuse {
	name R2-25-00-1_fuse_56;
	phases BN;
	from R2-25-00-1_node_242;
	to R2-25-00-1_node_308;
	current_limit 50000;
	status CLOSED;
}

object fuse {
	name R2-25-00-1_fuse_57;
	phases AN;
	from R2-25-00-1_node_116;
	to R2-25-00-1_node_321;
	current_limit 50000;
	status CLOSED;
}

object node {
	name R2-25-00-1_load_1;
	parent R2-25-00-1_meter_1;
	phases ABCN;
	nominal_voltage 480.00;
}

object node {
	name R2-25-00-1_load_2;
	parent R2-25-00-1_meter_2;
	phases ABCN;
	nominal_voltage 480.00;
}

object node {
	name R2-25-00-1_load_3;
	parent R2-25-00-1_meter_3;
	phases ABCN;
	nominal_voltage 480.00;
}

object node {
	name R2-25-00-1_load_4;
	parent R2-25-00-1_meter_4;
	phases ABCN;
	nominal_voltage 480.00;
}

object node {
	name R2-25-00-1_load_5;
	parent R2-25-00-1_meter_5;
	phases ABCN;
	nominal_voltage 480.00;
}

object node {
	name R2-25-00-1_load_6;
	parent R2-25-00-1_meter_6;
	phases CN;
	nominal_voltage 480.00;
}

object node {
	name R2-25-00-1_load_7;
	parent R2-25-00-1_meter_7;
	phases ABCN;
	nominal_voltage 480.00;
}

object node {
	name R2-25-00-1_load_8;
	parent R2-25-00-1_meter_8;
	phases CN;
...